/*--------------------------------*- C++ -*----------------------------------*\
  =========                 |
  \\      /  F ield         | OpenFOAM: The Open Source CFD Toolbox
   \\    /   O peration     | Website:  https://openfoam.org
    \\  /    A nd           | Version:  7
     \\/     M anipulation  |
\*---------------------------------------------------------------------------*/
FoamFile
{
    version     2.0;
    format      ascii;
    class       dictionary;
    location    "system";
    object      fvSolution;
}
// * * * * * * * * * * * * * * * * * * * * * * * * * * * * * * * * * * * * * //


// WARNING! The settings in this file should *not* be used to solve the physics
// of the problem. They were chosen to benchmark different clusters/processors

solvers
{
    p
    {
        solver          GAMG;
        tolerance       1e-10;
        relTol          0.0;
        minIter         10;
        maxIter         10;
        smoother        GaussSeidel;
    }

    "(U|k|epsilon|omega|f|v2)"
    {
        solver          smoothSolver;
        smoother        symGaussSeidel;
        tolerance       1e-10;
        relTol          0.0;
        minIter         10;
        maxIter         10;
    }
}


SIMPLE
{
    nNonOrthogonalCorrectors 0;
    consistent      yes;
}

relaxationFactors
{
    fields
    {
        p               0.5;
    }
    equations
    {
        U               0.5;
        ".*"            0.5;
    }
}


// ************************************************************************* //
